Version 4
SHEET 1 3680 680
WIRE 1616 -432 656 -432
WIRE 656 -336 656 -432
WIRE 1456 -336 656 -336
WIRE 1616 -320 1616 -432
WIRE 1504 -256 976 -256
WIRE 1936 -256 1728 -256
WIRE 1984 -256 1936 -256
WIRE 2144 -256 2064 -256
WIRE 1376 -208 1296 -208
WIRE 1504 -208 1376 -208
WIRE 1296 -176 1296 -208
WIRE 2144 -112 2144 -256
WIRE 2240 -112 2144 -112
WIRE 656 -96 656 -336
WIRE 1376 -96 1376 -208
WIRE 1808 -96 1376 -96
WIRE 1936 -96 1936 -256
WIRE 1936 -96 1888 -96
WIRE 1296 -80 1296 -96
WIRE 1616 -64 1616 -160
WIRE 1760 -64 1616 -64
WIRE 1456 -32 1456 -336
WIRE 656 32 656 -16
WIRE 656 32 560 32
WIRE 848 32 816 32
WIRE 976 32 976 -256
WIRE 976 32 912 32
WIRE 1168 32 976 32
WIRE 1264 32 1168 32
WIRE 1344 32 1264 32
WIRE 1632 32 1568 32
WIRE 1984 32 1632 32
WIRE 2144 32 2144 -112
WIRE 2144 32 2064 32
WIRE 2240 32 2240 -112
WIRE 560 64 560 32
WIRE 1168 64 1168 32
WIRE 656 80 656 32
WIRE 1344 80 1280 80
WIRE 2240 128 2240 112
WIRE 816 144 816 32
WIRE 1168 176 1168 144
WIRE 1280 224 1280 80
WIRE 1504 224 1280 224
WIRE 1632 224 1632 32
WIRE 1632 224 1584 224
WIRE 1280 240 1280 224
WIRE 816 272 816 224
WIRE 1280 336 1280 320
WIRE 656 368 656 160
WIRE 1456 368 1456 128
WIRE 1456 368 656 368
WIRE 1760 368 1760 -64
WIRE 1760 368 1456 368
FLAG 816 272 0
FLAG 1632 32 out
FLAG 560 64 0
FLAG 1280 336 0
FLAG 1264 32 input
FLAG 1168 176 0
FLAG 1296 -80 0
FLAG 2240 128 0
FLAG 2240 -112 out_sum
FLAG 816 32 in
SYMBOL AutoGenerated\\ADA4807 1456 32 R0
SYMATTR InstName U2
SYMBOL voltage 816 128 R0
WINDOW 123 24 124 Left 2
WINDOW 39 0 0 Left 0
SYMATTR Value2 AC 1u
SYMATTR InstName V4
SYMATTR Value SINE(0 1u 30k)
SYMBOL res 1600 208 R90
WINDOW 0 0 56 VBottom 2
WINDOW 3 32 56 VTop 2
SYMATTR InstName R5
SYMATTR Value 50k
SYMBOL voltage 656 -112 R0
WINDOW 123 0 0 Left 0
WINDOW 39 0 0 Left 0
SYMATTR InstName V1
SYMATTR Value 3
SYMBOL voltage 656 64 R0
WINDOW 123 0 0 Left 0
WINDOW 39 0 0 Left 0
SYMATTR InstName V2
SYMATTR Value 3
SYMBOL res 1264 224 R0
SYMATTR InstName R1
SYMATTR Value 50
SYMBOL AutoGenerated\\ADA4807 1616 -256 R0
SYMATTR InstName U1
SYMBOL res 1312 -80 R180
WINDOW 0 36 76 Left 2
WINDOW 3 36 40 Left 2
SYMATTR InstName R3
SYMATTR Value 50
SYMBOL res 1792 -80 R270
WINDOW 0 32 56 VTop 2
WINDOW 3 0 56 VBottom 2
SYMATTR InstName R4
SYMATTR Value 50k
SYMBOL res 2080 -272 R90
WINDOW 0 0 56 VBottom 2
WINDOW 3 32 56 VTop 2
SYMATTR InstName R7
SYMATTR Value 50
SYMBOL res 2080 16 R90
WINDOW 0 0 56 VBottom 2
WINDOW 3 32 56 VTop 2
SYMATTR InstName R8
SYMATTR Value 50
SYMBOL res 2224 16 R0
SYMATTR InstName R9
SYMATTR Value 100k
SYMBOL res 1152 48 R0
SYMATTR InstName R6
SYMATTR Value 500
SYMBOL cap 912 16 R90
WINDOW 0 0 32 VBottom 2
WINDOW 3 32 32 VTop 2
SYMATTR InstName C1
SYMATTR Value 47µ
TEXT 1096 400 Left 2 !;ac dec 100 100 10Meg
TEXT 1096 424 Left 2 !;tran 0 100us 100ns
TEXT 1096 448 Left 2 !.meas AC BW V(out2)
TEXT 1096 472 Left 2 !.noise V(out_sum) V4 dec 1000 1 100k
