Version 4
SHEET 1 3680 680
WIRE 1456 -336 656 -336
WIRE 2272 -336 1456 -336
WIRE 656 -96 656 -336
WIRE 1456 -32 1456 -336
WIRE 2272 -32 2272 -336
WIRE 656 32 656 -16
WIRE 656 32 560 32
WIRE 1040 32 976 32
WIRE 1200 32 1104 32
WIRE 1344 32 1200 32
WIRE 1632 32 1568 32
WIRE 1824 32 1632 32
WIRE 2000 32 1888 32
WIRE 2160 32 2000 32
WIRE 2480 32 2384 32
WIRE 2512 32 2480 32
WIRE 1200 48 1200 32
WIRE 2000 48 2000 32
WIRE 560 64 560 32
WIRE 976 64 976 32
WIRE 656 80 656 32
WIRE 1344 80 1280 80
WIRE 2160 80 2112 80
WIRE 976 128 976 64
WIRE 1200 144 1200 128
WIRE 2000 144 2000 128
WIRE 1280 224 1280 80
WIRE 1504 224 1280 224
WIRE 1632 224 1632 32
WIRE 1632 224 1584 224
WIRE 2112 224 2112 80
WIRE 2368 224 2112 224
WIRE 2512 224 2512 32
WIRE 2512 224 2448 224
WIRE 1280 240 1280 224
WIRE 2112 240 2112 224
WIRE 976 288 976 208
WIRE 1280 336 1280 320
WIRE 2112 336 2112 320
WIRE 656 368 656 160
WIRE 1456 368 1456 128
WIRE 1456 368 656 368
WIRE 2272 368 2272 128
WIRE 2272 368 1456 368
FLAG 976 288 0
FLAG 1632 32 out
FLAG 976 64 in
FLAG 560 64 0
FLAG 1280 336 0
FLAG 2112 336 0
FLAG 1200 144 0
FLAG 2000 144 0
FLAG 2480 32 out2
SYMBOL AutoGenerated\\ADA4807 1456 32 R0
SYMATTR InstName U2
SYMBOL voltage 976 112 R0
WINDOW 123 24 124 Left 2
WINDOW 39 0 0 Left 0
SYMATTR Value2 AC 1u
SYMATTR InstName V4
SYMATTR Value SINE(0 1u 30k)
SYMBOL res 1600 208 R90
WINDOW 0 0 56 VBottom 2
WINDOW 3 32 56 VTop 2
SYMATTR InstName R5
SYMATTR Value 200k
SYMBOL AutoGenerated\\ADA4807 2272 32 R0
SYMATTR InstName U3
SYMBOL res 2464 208 R90
WINDOW 0 0 56 VBottom 2
WINDOW 3 32 56 VTop 2
SYMATTR InstName R9
SYMATTR Value 47k
SYMBOL cap 1888 16 R90
WINDOW 0 0 32 VBottom 2
WINDOW 3 32 32 VTop 2
SYMATTR InstName C5
SYMATTR Value 1µ
SYMBOL voltage 656 -112 R0
WINDOW 123 0 0 Left 0
WINDOW 39 0 0 Left 0
SYMATTR InstName V1
SYMATTR Value 3
SYMBOL voltage 656 64 R0
WINDOW 123 0 0 Left 0
WINDOW 39 0 0 Left 0
SYMATTR InstName V2
SYMATTR Value 3
SYMBOL res 1264 224 R0
SYMATTR InstName R1
SYMATTR Value 1k
SYMBOL res 2096 224 R0
SYMATTR InstName R2
SYMATTR Value 1k
SYMBOL cap 1104 16 R90
WINDOW 0 0 32 VBottom 2
WINDOW 3 32 32 VTop 2
SYMATTR InstName C1
SYMATTR Value 1µ
SYMBOL res 1184 32 R0
SYMATTR InstName R3
SYMATTR Value 1k
SYMBOL res 1984 32 R0
SYMATTR InstName R4
SYMATTR Value 1k
TEXT 1096 400 Left 2 !;ac dec 100 100 10Meg
TEXT 1096 424 Left 2 !;tran 0 100us 100ns
TEXT 1096 448 Left 2 !.meas AC BW V(out2)
TEXT 1096 472 Left 2 !.noise V(out) V4 dec 1000 1 2Meg
