Version 4
SHEET 1 880 680
WIRE 592 -64 0 -64
WIRE 0 -48 0 -64
WIRE 592 16 592 -64
WIRE 592 16 192 16
WIRE 0 64 0 32
WIRE 0 64 -80 64
WIRE 48 64 0 64
WIRE 0 80 0 64
WIRE 192 80 192 16
WIRE 592 128 592 16
WIRE 48 144 48 64
WIRE 80 144 48 144
WIRE 368 144 304 144
WIRE 0 160 0 144
WIRE -80 176 -80 128
WIRE 0 192 0 160
WIRE 80 192 32 192
WIRE -192 240 -192 48
WIRE -80 240 -192 240
WIRE 32 240 32 192
WIRE 32 240 -16 240
WIRE -192 288 -192 240
WIRE 192 304 192 240
WIRE 592 304 592 208
WIRE 592 304 192 304
WIRE 592 320 592 304
WIRE 32 368 32 240
WIRE 144 368 32 368
WIRE 368 368 368 144
WIRE 368 368 224 368
WIRE 32 400 32 368
WIRE -192 416 -192 368
WIRE 32 512 32 480
FLAG 0 192 0
FLAG 592 320 0
FLAG 32 512 0
FLAG -192 416 0
FLAG 368 144 Vout
FLAG -192 48 Vin
FLAG -80 176 0
SYMBOL AutoGenerated\\ADA4807 192 144 R0
SYMATTR InstName U1
SYMBOL voltage 592 112 R0
WINDOW 123 0 0 Left 0
WINDOW 39 0 0 Left 0
SYMATTR InstName V1
SYMATTR Value 5
SYMBOL voltage -192 272 R0
WINDOW 123 24 124 Left 2
WINDOW 39 0 0 Left 0
SYMATTR Value2 AC 0.01
SYMATTR InstName V2
SYMATTR Value SINE(0 0.01 20k)
SYMBOL res 240 352 R90
WINDOW 0 0 56 VBottom 2
WINDOW 3 32 56 VTop 2
SYMATTR InstName R1
SYMATTR Value 49k
SYMBOL res 48 496 R180
WINDOW 0 36 76 Left 2
WINDOW 3 36 40 Left 2
SYMATTR InstName R2
SYMATTR Value 1000
SYMBOL res 16 48 R180
WINDOW 0 36 76 Left 2
WINDOW 3 36 40 Left 2
SYMATTR InstName R3
SYMATTR Value 10k
SYMBOL res 16 176 R180
WINDOW 0 36 76 Left 2
WINDOW 3 36 40 Left 2
SYMATTR InstName R4
SYMATTR Value 10k
SYMBOL cap -64 128 R180
WINDOW 0 24 56 Left 2
WINDOW 3 24 8 Left 2
SYMATTR InstName C1
SYMATTR Value 100n
SYMBOL cap -16 224 R90
WINDOW 0 0 32 VBottom 2
WINDOW 3 32 32 VTop 2
SYMATTR InstName C2
SYMATTR Value 1µ
TEXT -224 536 Left 2 !.ac dec 10 1k 100Meg
